                                   MODFLOW 6
                U.S. GEOLOGICAL SURVEY MODULAR HYDROLOGIC MODEL
                          GROUNDWATER FLOW MODEL (GWF)
                        VERSION 6.4.1 Release 12/09/2022

   MODFLOW 6 compiled Dec 09 2022 18:18:37 with Intel(R) Fortran Intel(R) 64
   Compiler Classic for applications running on Intel(R) 64, Version 2021.7.0
                             Build 20220726_000000

This software has been approved for release by the U.S. Geological 
Survey (USGS). Although the software has been subjected to rigorous 
review, the USGS reserves the right to update the software as needed 
pursuant to further analysis and review. No warranty, expressed or 
implied, is made by the USGS or the U.S. Government as to the 
functionality of the software and related material nor shall the 
fact of release constitute any such warranty. Furthermore, the 
software is released on condition that neither the USGS nor the U.S. 
Government shall be held liable for any damages resulting from its 
authorized or unauthorized use. Also refer to the USGS Water 
Resources Software User Rights Notice for complete use, copyright, 
and distribution information.


As a work of the United States Government, this USGS product is 
in the public domain within the United States. You can copy, 
modify, distribute, and perform the work, even for commercial 
purposes, all without asking permission. Additionally, USGS 
waives copyright and related rights in the work worldwide 
through CC0 1.0 Universal Public Domain Dedication 
(https://creativecommons.org/publicdomain/zero/1.0/).

The following GNU Lesser General Public License (LGPL) libraries
are used in this USGS product:

    SPARSKIT version 2.0
      ilut, luson, and qsplit 
      (https://www-users.cse.umn.edu/~saad/software/SPARSKIT/)

    RCM - Reverse Cuthill McKee Ordering
      (https://people.math.sc.edu/Burkardt/f_src/rcm/rcm.html)

    BLAS - Basic Linear Algebra Subprograms Level 1
      (https://people.math.sc.edu/Burkardt/f_src/blas1_d/blas1_d.html)

    SPARSEKIT - Sparse Matrix Utility Package
      amux, dperm, dvperm, rperm, and cperm
      (https://people.sc.fsu.edu/~jburkardt/f77_src/sparsekit/sparsekit.html)

The following BSD-3 License libraries are used in this USGS product:

    Modern Fortran DAG Library
      Copyright (c) 2018, Jacob Williams
      All rights reserved.
      (https://github.com/jacobwilliams/daglib)

MODFLOW 6 compiler options: /Isrc\libmf6core.a.p /Isrc /I..\src
/Isrc\libmf6_external.a.p /MTd /nologo /warn:general /warn:truncated_source
/stand:f08 /Zi /traceback /O2 /fpe:0 /heap-arrays:0 /traceback /fpp
/Qdiag-disable:7416 /Qdiag-disable:7025 /Qdiag-disable:5268
/Fdsrc\libmf6core.a.p\Utilities_compilerversion.F90.pdb
/module:src\libmf6core.a.p
/Fosrc/libmf6core.a.p/Utilities_compilerversion.F90.obj /c

System command used to initiate simulation:
mf6

MODFLOW was compiled using uniform precision.

Real Variables
  KIND: 8
  TINY (smallest non-zero value):    2.225074-308
  HUGE (largest value):    1.797693+308
  PRECISION: 15
  SIZE IN BITS: 64

Integer Variables
  KIND: 4
  HUGE (largest value): 2147483647
  SIZE IN BITS: 32

Long Integer Variables
  KIND: 8
  HUGE (largest value): 9223372036854775807
  SIZE IN BITS: 64

Logical Variables
  KIND: 4
  SIZE IN BITS: 32
 

 OPENED .\mf6lake.dis
 FILE TYPE:DIS6                   UNIT 1005   STATUS:OLD                 
 FORMAT:FORMATTED              ACCESS:SEQUENTIAL          
 ACTION:READ                


 OPENED .\mf6lake.ic
 FILE TYPE:IC6                    UNIT 1006   STATUS:OLD                 
 FORMAT:FORMATTED              ACCESS:SEQUENTIAL          
 ACTION:READ                


 OPENED .\mf6lake.npf
 FILE TYPE:NPF6                   UNIT 1007   STATUS:OLD                 
 FORMAT:FORMATTED              ACCESS:SEQUENTIAL          
 ACTION:READ                


 OPENED .\mf6lake.chd
 FILE TYPE:CHD6                   UNIT 1008   STATUS:OLD                 
 FORMAT:FORMATTED              ACCESS:SEQUENTIAL          
 ACTION:READ                


 OPENED .\mf6lake.oc
 FILE TYPE:OC6                    UNIT 1009   STATUS:OLD                 
 FORMAT:FORMATTED              ACCESS:SEQUENTIAL          
 ACTION:READ                


 DIS -- STRUCTURED GRID DISCRETIZATION PACKAGE, VERSION 2 : 3/27/2014 - INPUT READ FROM UNIT 1005

 Loading input for MF6LAKE/DIS
 # File generated by Flopy version 3.3.5 on 12/23/2023 at 15:54:39.
   NLAY = 10
   NROW = 101
   NCOL = 101
   DELR = 4.000000000000000
   DELC = 4.000000000000000
   TOP = .000000000000000
   BOTM = variable 3D double precision array ranging from -50.00000000000000 to -5.000000000000000
 Loading input complete...


 NPF -- NODE PROPERTY FLOW PACKAGE, VERSION 1, 3/30/2015 INPUT READ FROM UNIT 1007

 Loading input for MF6LAKE/NPF
 # File generated by Flopy version 3.3.5 on 12/23/2023 at 15:54:39.
   IPAKCB = 1
   ICELLTYPE = 1
   K = 1.000000000000000
 Loading input complete...

 Setting Discretization Options
 End Setting Discretization Options

 Setting Discretization Dimensions
    NLAY = 10
    NROW = 101
    NCOL = 101
 End Setting Discretization Dimensions

 Setting Discretization Griddata
    DELR set from input file
    DELC set from input file
    TOP set from input file
    BOTM set from input file
 End Setting Discretization Griddata

 Setting NPF Options
    Cell-by-cell flow information will be saved to binary file whenever ICBCFL is not zero.
 End Setting NPF Options

 Setting NPF Griddata
    ICELLTYPE set from input file
    K set from input file
    K33 not provided.  Setting K33 = K.
    K22 not provided.  Setting K22 = K.
 End Setting NPF Griddata


 CHD   -- CHD PACKAGE, VERSION 8, 2/22/2014 INPUT READ FROM UNIT 1008
 # File generated by Flopy version 3.3.5 on 12/23/2023 at 15:54:39.

 PROCESSING CHD OPTIONS
    FLOWS WILL BE SAVED TO BUDGET FILE SPECIFIED IN OUTPUT CONTROL
 END OF CHD OPTIONS

 PROCESSING CHD DIMENSIONS
    MAXBOUND =    4001
 END OF CHD DIMENSIONS

 IC -- INITIAL CONDITIONS PACKAGE, VERSION 8, 3/28/2015 INPUT READ FROM UNIT 1006
 # File generated by Flopy version 3.3.5 on 12/23/2023 at 15:54:39.
 PROCESSING GRIDDATA
 END PROCESSING GRIDDATA
    BINARY GRID INFORMATION WILL BE WRITTEN TO:
      UNIT NUMBER: 1011
      FILE NAME: c:\Users\qguo48\OneDrive - Georgia Institute of Technology\Desktop\research\code\flopy_example\data\mf6lake\mf6lake.dis.grb

 OPENED c:\Users\qguo48\OneDrive - Georgia Institute of Technology\Desktop\research\code\flopy_example\data\mf6lake\mf6lake.dis.grb
 FILE TYPE:DATA(BINARY)   UNIT 1011   STATUS:REPLACE             
 FORMAT:UNFORMATTED            ACCESS:STREAM              
 ACTION:READWRITE           

      THE LAST TIME STEP WILL BE PRINTED
      THE LAST TIME STEP WILL BE PRINTED
 # File generated by Flopy version 3.3.5 on 12/23/2023 at 15:54:39.

 PROCESSING OC OPTIONS

    BUDGET INFORMATION WILL BE WRITTEN TO:
      UNIT NUMBER: 1012
      FILE NAME: mf6lake.cbb

 OPENED mf6lake.cbb
 FILE TYPE:DATA(BINARY)   UNIT 1012   STATUS:REPLACE             
 FORMAT:UNFORMATTED            ACCESS:STREAM              
 ACTION:READWRITE           

    HEAD INFORMATION WILL BE WRITTEN TO:
      UNIT NUMBER: 1013
      FILE NAME: mf6lake.hds

 OPENED mf6lake.hds
 FILE TYPE:DATA(BINARY)   UNIT 1013   STATUS:REPLACE             
 FORMAT:UNFORMATTED            ACCESS:STREAM              
 ACTION:READWRITE           

 END OF OC OPTIONS

start timestep kper="1" kstp="1" mode="normal"


 BEGIN READING OUTPUT CONTROL FOR STRESS PERIOD 1
      ALL TIME STEPS WILL BE SAVED
      ALL TIME STEPS WILL BE SAVED
      THE LAST TIME STEP WILL BE PRINTED

 END READING OUTPUT CONTROL FOR STRESS PERIOD 1
 UBDSV1 SAVING     FLOW-JA-FACE ON UNIT   1012 AT TIME STEP      1, STRESS PERIOD      1
 UBDSV06 SAVING              CHD IN MODEL MF6LAKE          PACKAGE MF6LAKE         CONNECTED TO MODEL MF6LAKE          PACKAGE CHD              ON UNIT   1012 AT TIME STEP      1, STRESS PERIOD      1
1
  HEAD IN LAYER   1 AT END OF TIME STEP   1 IN STRESS PERIOD    1
  ---------------------------------------------------------------------------

            1           2           3           4           5           6           7           8           9          10
           11          12          13          14          15          16          17          18          19          20
           21          22          23          24          25          26          27          28          29          30
           31          32          33          34          35          36          37          38          39          40
           41          42          43          44          45          46          47          48          49          50
           51          52          53          54          55          56          57          58          59          60
           61          62          63          64          65          66          67          68          69          70
           71          72          73          74          75          76          77          78          79          80
           81          82          83          84          85          86          87          88          89          90
           91          92          93          94          95          96          97          98          99         100
          101
 ........................................................................................................................
   1    100.0       100.0       100.0       100.0       100.0       100.0       100.0       100.0       100.0       100.0    
        100.0       100.0       100.0       100.0       100.0       100.0       100.0       100.0       100.0       100.0    
        100.0       100.0       100.0       100.0       100.0       100.0       100.0       100.0       100.0       100.0    
        100.0       100.0       100.0       100.0       100.0       100.0       100.0       100.0       100.0       100.0    
        100.0       100.0       100.0       100.0       100.0       100.0       100.0       100.0       100.0       100.0    
        100.0       100.0       100.0       100.0       100.0       100.0       100.0       100.0       100.0       100.0    
        100.0       100.0       100.0       100.0       100.0       100.0       100.0       100.0       100.0       100.0    
        100.0       100.0       100.0       100.0       100.0       100.0       100.0       100.0       100.0       100.0    
        100.0       100.0       100.0       100.0       100.0       100.0       100.0       100.0       100.0       100.0    
        100.0       100.0       100.0       100.0       100.0       100.0       100.0       100.0       100.0       100.0    
        100.0    
   2    100.0      100.00      100.00      100.00       99.99       99.99       99.99       99.99       99.99       99.99    
        99.99       99.99       99.98       99.98       99.98       99.98       99.98       99.98       99.98       99.98    
        99.98       99.97       99.97       99.97       99.97       99.97       99.97       99.97       99.97       99.97    
        99.97       99.97       99.97       99.97       99.98       99.98       99.98       99.98       99.98       99.98    
        99.98       99.98       99.98       99.98       99.98       99.98       99.98       99.99       99.99       99.99    
        99.99       99.99       99.99       99.99       99.99       99.99       99.99       99.99       99.99       99.99    
        99.99       99.99       99.99       99.99       99.99       99.99       99.99       99.99       99.99       99.99    
       100.00      100.00      100.00      100.00      100.00      100.00      100.00      100.00      100.00      100.00    
       100.00      100.00      100.00      100.00      100.00      100.00      100.00      100.00      100.00      100.00    
       100.00      100.00      100.00      100.00      100.00      100.00      100.00      100.00      100.00      100.00    
        100.0    
   3    100.0      100.00       99.99       99.99       99.99       99.99       99.98       99.98       99.98       99.98    
        99.97       99.97       99.97       99.97       99.96       99.96       99.96       99.96       99.95       99.95    
        99.95       99.95       99.95       99.95       99.95       99.95       99.95       99.95       99.95       99.95    
        99.95       99.95       99.95       99.95       99.95       99.95       99.95       99.96       99.96       99.96    
        99.96       99.96       99.96       99.96       99.97       99.97       99.97       99.97       99.97       99.97    
        99.97       99.98       99.98       99.98       99.98       99.98       99.98       99.98       99.98       99.98    
        99.98       99.98       99.99       99.99       99.99       99.99       99.99       99.99       99.99       99.99    
        99.99       99.99       99.99       99.99       99.99       99.99       99.99       99.99       99.99       99.99    
        99.99       99.99      100.00      100.00      100.00      100.00      100.00      100.00      100.00      100.00    
       100.00      100.00      100.00      100.00      100.00      100.00      100.00      100.00      100.00      100.00    
        100.0    
   4    100.0      100.00       99.99       99.99       99.98       99.98       99.98       99.97       99.97       99.96    
        99.96       99.96       99.95       99.95       99.94       99.94       99.94       99.93       99.93       99.93    
        99.93       99.92       99.92       99.92       99.92       99.92       99.92       99.92       99.92       99.92    
        99.92       99.92       99.92       99.92       99.93       99.93       99.93       99.93       99.94       99.94    
        99.94       99.94       99.94       99.95       99.95       99.95       99.95       99.96       99.96       99.96    
        99.96       99.96       99.96       99.97       99.97       99.97       99.97       99.97       99.97       99.98    
        99.98       99.98       99.98       99.98       99.98       99.98       99.98       99.98       99.98       99.98    
        99.99       99.99       99.99       99.99       99.99       99.99       99.99       99.99       99.99       99.99    
        99.99       99.99       99.99       99.99       99.99       99.99       99.99      100.00      100.00      100.00    
       100.00      100.00      100.00      100.00      100.00      100.00      100.00      100.00      100.00      100.00    
        100.0    
   5    100.0       99.99       99.99       99.98       99.98       99.97       99.97       99.96       99.96       99.95    
        99.95       99.94       99.94       99.93       99.93       99.92       99.92       99.91       99.91       99.90    
        99.90       99.90       99.90       99.89       99.89       99.89       99.89       99.89       99.89       99.89    
        99.89       99.89       99.90       99.90       99.90       99.90       99.91       99.91       99.91       99.92    
        99.92       99.92       99.93       99.93       99.93       99.94       99.94       99.94       99.94       99.95    
        99.95       99.95       99.95       99.96       99.96       99.96       99.96       99.96       99.97       99.97    
        99.97       99.97       99.97       99.97       99.97       99.98       99.98       99.98       99.98       99.98    
        99.98       99.98       99.98       99.98       99.98       99.98       99.99       99.99       99.99       99.99    
        99.99       99.99       99.99       99.99       99.99       99.99       99.99       99.99       99.99       99.99    
       100.00      100.00      100.00      100.00      100.00      100.00      100.00      100.00      100.00      100.00    
        100.0    
   6    100.0       99.99       99.99       99.98       99.97       99.97       99.96       99.95       99.95       99.94    
        99.93       99.93       99.92       99.91       99.91       99.90       99.90       99.89       99.88       99.88    
        99.88       99.87       99.87       99.87       99.86       99.86       99.86       99.86       99.86       99.86    
        99.87       99.87       99.87       99.87       99.88       99.88       99.88       99.89       99.89       99.90    
        99.90       99.90       99.91       99.91       99.92       99.92       99.92       99.93       99.93       99.93    
        99.94       99.94       99.94       99.94       99.95       99.95       99.95       99.95       99.96       99.96    
        99.96       99.96       99.96       99.97       99.97       99.97       99.97       99.97       99.97       99.97    
        99.98       99.98       99.98       99.98       99.98       99.98       99.98       99.98       99.98       99.99    
        99.99       99.99       99.99       99.99       99.99       99.99       99.99       99.99       99.99       99.99    
        99.99      100.00      100.00      100.00      100.00      100.00      100.00      100.00      100.00      100.00    
        100.0    
   7    100.0       99.99       99.98       99.98       99.97       99.96       99.95       99.94       99.94       99.93    
        99.92       99.91       99.90       99.90       99.89       99.88       99.87       99.87       99.86       99.85    
        99.85       99.84       99.84       99.84       99.84       99.83       99.83       99.83       99.83       99.83    
        99.84       99.84       99.84       99.85       99.85       99.86       99.86       99.86       99.87       99.87    
        99.88       99.88       99.89       99.89       99.90       99.90       99.91       99.91       99.92       99.92    
        99.92       99.93       99.93       99.93       99.94       99.94       99.94       99.95       99.95       99.95    
        99.95       99.96       99.96       99.96       99.96       99.96       99.96       99.97       99.97       99.97    
        99.97       99.97       99.97       99.98       99.98       99.98       99.98       99.98       99.98       99.98    
        99.98       99.98       99.99       99.99       99.99       99.99       99.99       99.99       99.99       99.99    
        99.99       99.99       99.99      100.00      100.00      100.00      100.00      100.00      100.00      100.00    
        100.0    
   8    100.0       99.99       99.98       99.97       99.96       99.95       99.94       99.93       99.92       99.92    
        99.91       99.90       99.89       99.88       99.87       99.86       99.85       99.84       99.84       99.83    
        99.82       99.82       99.81       99.81       99.81       99.80       99.80       99.80       99.80       99.81    
        99.81       99.81       99.82       99.82       99.83       99.83       99.84       99.84       99.85       99.85    
        99.86       99.87       99.87       99.88       99.88       99.89       99.89       99.90       99.90       99.91    
        99.91       99.92       99.92       99.92       99.93       99.93       99.93       99.94       99.94       99.94    
        99.95       99.95       99.95       99.95       99.96       99.96       99.96       99.96       99.96       99.96    
        99.97       99.97       99.97       99.97       99.97       99.97       99.98       99.98       99.98       99.98    
        99.98       99.98       99.98       99.98       99.99       99.99       99.99       99.99       99.99       99.99    
        99.99       99.99       99.99       99.99      100.00      100.00      100.00      100.00      100.00      100.00    
        100.0    
   9    100.0       99.99       99.98       99.97       99.96       99.95       99.94       99.92       99.91       99.90    
        99.89       99.88       99.87       99.86       99.85       99.84       99.83       99.82       99.81       99.80    
        99.79       99.79       99.78       99.78       99.77       99.77       99.77       99.77       99.77       99.77    
        99.78       99.78       99.79       99.79       99.80       99.81       99.81       99.82       99.83       99.83    
        99.84       99.85       99.85       99.86       99.87       99.87       99.88       99.88       99.89       99.89    
        99.90       99.90       99.91       99.91       99.92       99.92       99.92       99.93       99.93       99.94    
        99.94       99.94       99.94       99.95       99.95       99.95       99.95       99.96       99.96       99.96    
        99.96       99.96       99.97       99.97       99.97       99.97       99.97       99.97       99.98       99.98    
        99.98       99.98       99.98       99.98       99.98       99.99       99.99       99.99       99.99       99.99    
        99.99       99.99       99.99       99.99       99.99      100.00      100.00      100.00      100.00      100.00    
        100.0    
  10    100.0       99.99       99.98       99.96       99.95       99.94       99.93       99.92       99.90       99.89    
        99.88       99.87       99.85       99.84       99.83       99.82       99.81       99.79       99.78       99.77    
        99.76       99.76       99.75       99.74       99.74       99.74       99.74       99.74       99.74       99.74    
        99.75       99.75       99.76       99.76       99.77       99.78       99.79       99.80       99.80       99.81    
        99.82       99.83       99.83       99.84       99.85       99.86       99.86       99.87       99.88       99.88    
        99.89       99.89       99.90       99.90       99.91       99.91       99.92       99.92       99.92       99.93    
        99.93       99.93       99.94       99.94       99.94       99.95       99.95       99.95       99.95       99.96    
        99.96       99.96       99.96       99.96       99.97       99.97       99.97       99.97       99.97       99.97    
        99.98       99.98       99.98       99.98       99.98       99.98       99.98       99.99       99.99       99.99    
        99.99       99.99       99.99       99.99       99.99       99.99      100.00      100.00      100.00      100.00    
        100.0    
  11    100.0       99.99       99.97       99.96       99.95       99.93       99.92       99.91       99.89       99.88    
        99.86       99.85       99.84       99.82       99.81       99.79       99.78       99.77       99.76       99.74    
        99.73       99.72       99.72       99.71       99.71       99.70       99.70       99.70       99.70       99.71    
        99.71       99.72       99.73       99.74       99.74       99.75       99.76       99.77       99.78       99.79    
        99.80       99.81       99.82       99.83       99.83       99.84       99.85       99.86       99.86       99.87    
        99.88       99.88       99.89       99.89       99.90       99.90       99.91       99.91       99.92       99.92    
        99.92       99.93       99.93       99.93       99.94       99.94       99.94       99.95       99.95       99.95    
        99.95       99.96       99.96       99.96       99.96       99.96       99.97       99.97       99.97       99.97    
        99.97       99.97       99.98       99.98       99.98       99.98       99.98       99.98       99.99       99.99    
        99.99       99.99       99.99       99.99       99.99       99.99      100.00      100.00      100.00      100.00    
        100.0    
  12    100.0       99.99       99.97       99.96       99.94       99.93       99.91       99.90       99.88       99.87    
        99.85       99.83       99.82       99.80       99.79       99.77       99.76       99.74       99.73       99.71    
        99.70       99.69       99.68       99.67       99.67       99.66       99.66       99.66       99.67       99.67    
        99.68       99.69       99.70       99.71       99.72       99.73       99.74       99.75       99.76       99.77    
        99.78       99.79       99.80       99.81       99.82       99.83       99.83       99.84       99.85       99.86    
        99.86       99.87       99.88       99.88       99.89       99.89       99.90       99.90       99.91       99.91    
        99.92       99.92       99.92       99.93       99.93       99.93       99.94       99.94       99.94       99.95    
        99.95       99.95       99.95       99.96       99.96       99.96       99.96       99.96       99.97       99.97    
        99.97       99.97       99.97       99.98       99.98       99.98       99.98       99.98       99.98       99.99    
        99.99       99.99       99.99       99.99       99.99       99.99       99.99      100.00      100.00      100.00    
        100.0    
  13    100.0       99.98       99.97       99.95       99.94       99.92       99.90       99.89       99.87       99.85    
        99.84       99.82       99.80       99.78       99.77       99.75       99.73       99.71       99.70       99.68    
        99.67       99.65       99.64       99.63       99.63       99.62       99.62       99.62       99.63       99.63    
        99.64       99.65       99.66       99.67       99.69       99.70       99.71       99.72       99.74       99.75    
        99.76       99.77       99.78       99.79       99.80       99.81       99.82       99.83       99.84       99.85    
        99.85       99.86       99.87       99.87       99.88       99.89       99.89       99.90       99.90       99.91    
        99.91       99.91       99.92       99.92       99.93       99.93       99.93       99.94       99.94       99.94    
        99.94       99.95       99.95       99.95       99.95       99.96       99.96       99.96       99.96       99.97    
        99.97       99.97       99.97       99.97       99.98       99.98       99.98       99.98       99.98       99.99    
        99.99       99.99       99.99       99.99       99.99       99.99       99.99      100.00      100.00      100.00    
        100.0    
  14    100.0       99.98       99.97       99.95       99.93       99.91       99.90       99.88       99.86       99.84    
        99.82       99.80       99.78       99.76       99.74       99.72       99.70       99.68       99.66       99.65    
        99.63       99.61       99.60       99.59       99.58       99.58       99.58       99.58       99.58       99.59    
        99.60       99.61       99.63       99.64       99.66       99.67       99.69       99.70       99.71       99.73    
        99.74       99.75       99.77       99.78       99.79       99.80       99.81       99.82       99.83       99.83    
        99.84       99.85       99.86       99.86       99.87       99.88       99.88       99.89       99.89       99.90    
        99.90       99.91       99.91       99.92       99.92       99.92       99.93       99.93       99.93       99.94    
        99.94       99.94       99.95       99.95       99.95       99.95       99.96       99.96       99.96       99.96    
        99.97       99.97       99.97       99.97       99.97       99.98       99.98       99.98       99.98       99.98    
        99.99       99.99       99.99       99.99       99.99       99.99       99.99      100.00      100.00      100.00    
        100.0    
  15    100.0       99.98       99.96       99.94       99.93       99.91       99.89       99.87       99.85       99.83    
        99.81       99.79       99.77       99.74       99.72       99.70       99.68       99.65       99.63       99.61    
        99.59       99.57       99.55       99.54       99.53       99.53       99.52       99.53       99.54       99.55    
        99.56       99.58       99.59       99.61       99.63       99.64       99.66       99.68       99.69       99.71    
        99.72       99.74       99.75       99.76       99.77       99.78       99.79       99.80       99.81       99.82    
        99.83       99.84       99.85       99.86       99.86       99.87       99.88       99.88       99.89       99.89    
        99.90       99.90       99.91       99.91       99.92       99.92       99.92       99.93       99.93       99.93    
        99.94       99.94       99.94       99.95       99.95       99.95       99.95       99.96       99.96       99.96    
        99.96       99.97       99.97       99.97       99.97       99.97       99.98       99.98       99.98       99.98    
        99.98       99.99       99.99       99.99       99.99       99.99       99.99      100.00      100.00      100.00    
        100.0    
  16    100.0       99.98       99.96       99.94       99.92       99.90       99.88       99.86       99.84       99.82    
        99.79       99.77       99.75       99.72       99.70       99.67       99.65       99.62       99.59       99.57    
        99.54       99.52       99.50       99.48       99.47       99.47       99.47       99.47       99.48       99.50    
        99.51       99.53       99.55       99.57       99.59       99.61       99.63       99.65       99.67       99.69    
        99.70       99.72       99.73       99.75       99.76       99.77       99.78       99.79       99.80       99.81    
        99.82       99.83       99.84       99.85       99.85       99.86       99.87       99.87       99.88       99.89    
        99.89       99.90       99.90       99.91       99.91       99.91       99.92       99.92       99.93       99.93    
        99.93       99.94       99.94       99.94       99.95       99.95       99.95       99.95       99.96       99.96    
        99.96       99.96       99.97       99.97       99.97       99.97       99.98       99.98       99.98       99.98    
        99.98       99.99       99.99       99.99       99.99       99.99       99.99       99.99      100.00      100.00    
        100.0    
  17    100.0       99.98       99.96       99.94       99.92       99.90       99.87       99.85       99.83       99.81    
        99.78       99.76       99.73       99.70       99.68       99.65       99.62       99.59       99.56       99.52    
        99.49       99.46       99.44       99.42       99.40       99.40       99.40       99.41       99.42       99.44    
        99.46       99.49       99.51       99.54       99.56       99.59       99.61       99.63       99.65       99.67    
        99.68       99.70       99.72       99.73       99.75       99.76       99.77       99.78       99.79       99.80    
        99.81       99.82       99.83       99.84       99.85       99.85       99.86       99.87       99.87       99.88    
        99.89       99.89       99.90       99.90       99.91       99.91       99.91       99.92       99.92       99.93    
        99.93       99.93       99.94       99.94       99.94       99.95       99.95       99.95       99.95       99.96    
        99.96       99.96       99.96       99.97       99.97       99.97       99.97       99.98       99.98       99.98    
        99.98       99.98       99.99       99.99       99.99       99.99       99.99       99.99      100.00      100.00    
        100.0    
  18    100.0       99.98       99.96       99.93       99.91       99.89       99.87       99.84       99.82       99.79    
        99.77       99.74       99.71       99.68       99.65       99.62       99.59       99.55       99.51       99.48    
        99.44       99.40       99.37       99.34       99.32       99.31       99.32       99.33       99.35       99.38    
        99.41       99.44       99.47       99.50       99.53       99.56       99.58       99.60       99.63       99.65    
        99.67       99.69       99.70       99.72       99.73       99.75       99.76       99.77       99.78       99.79    
        99.80       99.81       99.82       99.83       99.84       99.85       99.85       99.86       99.87       99.87    
        99.88       99.89       99.89       99.90       99.90       99.91       99.91       99.91       99.92       99.92    
        99.93       99.93       99.93       99.94       99.94       99.94       99.95       99.95       99.95       99.95    
        99.96       99.96       99.96       99.97       99.97       99.97       99.97       99.97       99.98       99.98    
        99.98       99.98       99.99       99.99       99.99       99.99       99.99       99.99      100.00      100.00    
        100.0    
  19    100.0       99.98       99.95       99.93       99.91       99.88       99.86       99.84       99.81       99.78    
        99.76       99.73       99.70       99.66       99.63       99.59       99.56       99.51       99.47       99.42    
        99.38       99.33       99.29       99.25       99.22       99.21       99.22       99.24       99.27       99.30    
        99.34       99.38       99.42       99.46       99.49       99.53       99.56       99.58       99.61       99.63    
        99.65       99.67       99.69       99.71       99.72       99.74       99.75       99.76       99.77       99.79    
        99.80       99.81       99.82       99.82       99.83       99.84       99.85       99.86       99.86       99.87    
        99.88       99.88       99.89       99.89       99.90       99.90       99.91       99.91       99.91       99.92    
        99.92       99.93       99.93       99.93       99.94       99.94       99.94       99.95       99.95       99.95    
        99.96       99.96       99.96       99.96       99.97       99.97       99.97       99.97       99.98       99.98    
        99.98       99.98       99.98       99.99       99.99       99.99       99.99       99.99      100.00      100.00    
        100.0    
  20    100.0       99.98       99.95       99.93       99.90       99.88       99.85       99.83       99.80       99.77    
        99.74       99.71       99.68       99.65       99.61       99.57       99.52       99.48       99.42       99.37    
        99.31       99.25       99.19       99.13       99.10       99.08       99.09       99.12       99.17       99.22    
        99.27       99.33       99.38       99.42       99.46       99.50       99.53       99.56       99.59       99.61    
        99.64       99.66       99.68       99.69       99.71       99.72       99.74       99.75       99.77       99.78    
        99.79       99.80       99.81       99.82       99.83       99.83       99.84       99.85       99.86       99.86    
        99.87       99.88       99.88       99.89       99.89       99.90       99.90       99.91       99.91       99.92    
        99.92       99.92       99.93       99.93       99.93       99.94       99.94       99.94       99.95       99.95    
        99.95       99.96       99.96       99.96       99.96       99.97       99.97       99.97       99.97       99.98    
        99.98       99.98       99.98       99.99       99.99       99.99       99.99       99.99      100.00      100.00    
        100.0    
  21    100.0       99.98       99.95       99.93       99.90       99.88       99.85       99.82       99.79       99.76    
        99.73       99.70       99.67       99.63       99.59       99.54       99.49       99.44       99.38       99.31    
        99.23       99.15       99.07       98.99       98.92       98.90       98.92       98.97       99.05       99.12    
        99.20       99.27       99.33       99.38       99.43       99.47       99.51       99.54       99.57       99.60    
        99.62       99.64       99.66       99.68       99.70       99.72       99.73       99.74       99.76       99.77    
        99.78       99.79       99.80       99.81       99.82       99.83       99.84       99.84       99.85       99.86    
        99.87       99.87       99.88       99.88       99.89       99.89       99.90       99.90       99.91       99.91    
        99.92       99.92       99.92       99.93       99.93       99.94       99.94       99.94       99.95       99.95    
        99.95       99.95       99.96       99.96       99.96       99.97       99.97       99.97       99.97       99.98    
        99.98       99.98       99.98       99.99       99.99       99.99       99.99       99.99      100.00      100.00    
        100.0    
  22    100.0       99.97       99.95       99.92       99.90       99.87       99.84       99.82       99.79       99.76    
        99.72       99.69       99.65       99.61       99.57       99.52       99.46       99.40       99.33       99.25    
        99.15       99.04       98.92       98.79       98.68       98.63       98.68       98.78       98.90       99.01    
        99.11       99.20       99.28       99.34       99.40       99.45       99.49       99.52       99.55       99.58    
        99.61       99.63       99.65       99.67       99.69       99.71       99.72       99.74       99.75       99.76    
        99.77       99.79       99.80       99.81       99.82       99.82       99.83       99.84       99.85       99.85    
        99.86       99.87       99.87       99.88       99.89       99.89       99.90       99.90       99.90       99.91    
        99.91       99.92       99.92       99.93       99.93       99.93       99.94       99.94       99.94       99.95    
        99.95       99.95       99.96       99.96       99.96       99.96       99.97       99.97       99.97       99.98    
        99.98       99.98       99.98       99.98       99.99       99.99       99.99       99.99      100.00      100.00    
        100.0    
  23    100.0       99.97       99.95       99.92       99.90       99.87       99.84       99.81       99.78       99.75    
        99.72       99.68       99.64       99.60       99.55       99.50       99.44       99.37       99.29       99.19    
        99.07       98.92       98.73       98.52       98.32       98.20       98.31       98.51       98.71       98.89    
        99.03       99.14       99.23       99.31       99.37       99.42       99.47       99.51       99.54       99.57    
        99.60       99.62       99.64       99.66       99.68       99.70       99.72       99.73       99.74       99.76    
        99.77       99.78       99.79       99.80       99.81       99.82       99.83       99.84       99.84       99.85    
        99.86       99.86       99.87       99.88       99.88       99.89       99.89       99.90       99.90       99.91    
        99.91       99.92       99.92       99.92       99.93       99.93       99.94       99.94       99.94       99.95    
        99.95       99.95       99.95       99.96       99.96       99.96       99.97       99.97       99.97       99.97    
        99.98       99.98       99.98       99.98       99.99       99.99       99.99       99.99      100.00      100.00    
        100.0    
  24    100.0       99.97       99.95       99.92       99.89       99.87       99.84       99.81       99.78       99.74    
        99.71       99.67       99.63       99.59       99.54       99.48       99.42       99.34       99.25       99.13    
        98.99       98.79       98.52       98.17       97.73       97.39       97.72       98.15       98.50       98.76    
        98.95       99.09       99.20       99.28       99.35       99.41       99.45       99.49       99.53       99.56    
        99.59       99.61       99.64       99.66       99.68       99.69       99.71       99.72       99.74       99.75    
        99.76       99.78       99.79       99.80       99.81       99.81       99.82       99.83       99.84       99.85    
        99.85       99.86       99.87       99.87       99.88       99.88       99.89       99.89       99.90       99.90    
        99.91       99.91       99.92       99.92       99.93       99.93       99.93       99.94       99.94       99.94    
        99.95       99.95       99.95       99.96       99.96       99.96       99.96       99.97       99.97       99.97    
        99.98       99.98       99.98       99.98       99.99       99.99       99.99       99.99      100.00      100.00    
        100.0    
  25    100.0       99.97       99.95       99.92       99.89       99.86       99.84       99.81       99.77       99.74    
        99.71       99.67       99.63       99.58       99.53       99.47       99.40       99.32       99.22       99.10    
        98.92       98.68       98.32       97.73       96.78       95.52       96.77       97.72       98.29       98.65    
        98.89       99.05       99.17       99.26       99.33       99.39       99.44       99.48       99.52       99.55    
        99.58       99.61       99.63       99.65       99.67       99.69       99.70       99.72       99.73       99.75    
        99.76       99.77       99.78       99.79       99.80       99.81       99.82       99.83       99.84       99.84    
        99.85       99.86       99.86       99.87       99.88       99.88       99.89       99.89       99.90       99.90    
        99.91       99.91       99.92       99.92       99.92       99.93       99.93       99.94       99.94       99.94    
        99.95       99.95       99.95       99.96       99.96       99.96       99.96       99.97       99.97       99.97    
        99.98       99.98       99.98       99.98       99.99       99.99       99.99       99.99      100.00      100.00    
        100.0    
  26    100.0       99.97       99.95       99.92       99.89       99.86       99.83       99.80       99.77       99.74    
        99.70       99.66       99.62       99.58       99.53       99.47       99.40       99.31       99.21       99.08    
        98.90       98.63       98.20       97.39       95.52       90.00       95.52       97.38       98.18       98.60    
        98.86       99.03       99.16       99.25       99.33       99.39       99.44       99.48       99.52       99.55    
        99.58       99.60       99.62       99.65       99.67       99.68       99.70       99.72       99.73       99.74    
        99.76       99.77       99.78       99.79       99.80       99.81       99.82       99.83       99.83       99.84    
        99.85       99.85       99.86       99.87       99.87       99.88       99.88       99.89       99.90       99.90    
        99.90       99.91       99.91       99.92       99.92       99.93       99.93       99.93       99.94       99.94    
        99.94       99.95       99.95       99.95       99.96       99.96       99.96       99.97       99.97       99.97    
        99.97       99.98       99.98       99.98       99.98       99.99       99.99       99.99       99.99      100.00    
        100.0    
  27    100.0       99.97       99.95       99.92       99.89       99.86       99.83       99.80       99.77       99.74    
        99.70       99.66       99.62       99.58       99.52       99.47       99.40       99.32       99.22       99.09    
        98.92       98.68       98.31       97.72       96.77       95.52       96.76       97.71       98.29       98.64    
        98.88       99.04       99.16       99.25       99.33       99.38       99.43       99.48       99.51       99.54    
        99.57       99.60       99.62       99.64       99.66       99.68       99.70       99.71       99.73       99.74    
        99.75       99.76       99.78       99.79       99.80       99.80       99.81       99.82       99.83       99.84    
        99.85       99.85       99.86       99.87       99.87       99.88       99.88       99.89       99.89       99.90    
        99.90       99.91       99.91       99.92       99.92       99.92       99.93       99.93       99.94       99.94    
        99.94       99.95       99.95       99.95       99.96       99.96       99.96       99.96       99.97       99.97    
        99.97       99.98       99.98       99.98       99.98       99.99       99.99       99.99       99.99      100.00    
        100.0    
  28    100.0       99.97       99.95       99.92       99.89       99.86       99.83       99.80       99.77       99.74    
        99.70       99.66       99.62       99.58       99.53       99.47       99.41       99.33       99.24       99.12    
        98.97       98.78       98.51       98.15       97.72       97.38       97.71       98.14       98.49       98.74    
        98.93       99.07       99.18       99.26       99.33       99.39       99.44       99.48       99.51       99.54    
        99.57       99.60       99.62       99.64       99.66       99.68       99.69       99.71       99.72       99.74    
        99.75       99.76       99.77       99.78       99.79       99.80       99.81       99.82       99.83       99.84    
        99.84       99.85       99.86       99.86       99.87       99.88       99.88       99.89       99.89       99.90    
        99.90       99.91       99.91       99.92       99.92       99.92       99.93       99.93       99.93       99.94    
        99.94       99.95       99.95       99.95       99.95       99.96       99.96       99.96       99.97       99.97    
        99.97       99.98       99.98       99.98       99.98       99.99       99.99       99.99       99.99      100.00    
        100.0    
  29    100.0       99.97       99.95       99.92       99.89       99.86       99.83       99.80       99.77       99.74    
        99.70       99.67       99.63       99.58       99.54       99.48       99.42       99.35       99.27       99.17    
        99.05       98.90       98.71       98.50       98.29       98.18       98.29       98.49       98.69       98.86    
        99.00       99.12       99.21       99.28       99.35       99.40       99.44       99.48       99.52       99.55    
        99.57       99.60       99.62       99.64       99.66       99.68       99.69       99.71       99.72       99.74    
        99.75       99.76       99.77       99.78       99.79       99.80       99.81       99.82       99.83       99.83    
        99.84       99.85       99.86       99.86       99.87       99.87       99.88       99.88       99.89       99.90    
        99.90       99.90       99.91       99.91       99.92       99.92       99.93       99.93       99.93       99.94    
        99.94       99.94       99.95       99.95       99.95       99.96       99.96       99.96       99.97       99.97    
        99.97       99.98       99.98       99.98       99.98       99.99       99.99       99.99       99.99      100.00    
        100.0    
  30    100.0       99.97       99.95       99.92       99.89       99.86       99.83       99.81       99.77       99.74    
        99.71       99.67       99.63       99.59       99.55       99.50       99.44       99.38       99.30       99.22    
        99.12       99.01       98.89       98.76       98.65       98.60       98.64       98.74       98.86       98.98    
        99.08       99.17       99.25       99.31       99.37       99.41       99.45       99.49       99.52       99.55    
        99.58       99.60       99.62       99.64       99.66       99.68       99.69       99.71       99.72       99.74    
        99.75       99.76       99.77       99.78       99.79       99.80       99.81       99.82       99.82       99.83    
        99.84       99.85       99.85       99.86       99.87       99.87       99.88       99.88       99.89       99.89    
        99.90       99.90       99.91       99.91       99.92       99.92       99.93       99.93       99.93       99.94    
        99.94       99.94       99.95       99.95       99.95       99.96       99.96       99.96       99.97       99.97    
        99.97       99.97       99.98       99.98       99.98       99.99       99.99       99.99       99.99      100.00    
        100.0    
  31    100.0       99.97       99.95       99.92       99.89       99.87       99.84       99.81       99.78       99.75    
        99.71       99.68       99.64       99.60       99.56       99.51       99.46       99.41       99.34       99.27    
        99.20       99.11       99.03       98.95       98.89       98.86       98.88       98.93       99.00       99.08    
        99.16       99.23       99.29       99.34       99.39       99.43       99.47       99.50       99.53       99.56    
        99.58       99.60       99.62       99.64       99.66       99.68       99.69       99.71       99.72       99.73    
        99.75       99.76       99.77       99.78       99.79       99.80       99.81       99.82       99.82       99.83    
        99.84       99.85       99.85       99.86       99.87       99.87       99.88       99.88       99.89       99.89    
        99.90       99.90       99.91       99.91       99.92       99.92       99.92       99.93       99.93       99.94    
        99.94       99.94       99.95       99.95       99.95       99.96       99.96       99.96       99.97       99.97    
        99.97       99.97       99.98       99.98       99.98       99.99       99.99       99.99       99.99      100.00    
        100.0    
  32    100.0       99.97       99.95       99.92       99.89       99.87       99.84       99.81       99.78       99.75    
        99.72       99.69       99.65       99.61       99.58       99.53       99.49       99.44       99.38       99.33    
        99.27       99.20       99.14       99.09       99.05       99.03       99.04       99.07       99.12       99.17    
        99.23       99.28       99.33       99.37       99.41       99.45       99.48       99.51       99.54       99.56    
        99.59       99.61       99.63       99.65       99.66       99.68       99.70       99.71       99.72       99.74    
        99.75       99.76       99.77       99.78       99.79       99.80       99.81       99.81       99.82       99.83    
        99.84       99.84       99.85       99.86       99.86       99.87       99.88       99.88       99.89       99.89    
        99.90       99.90       99.91       99.91       99.92       99.92       99.92       99.93       99.93       99.93    
        99.94       99.94       99.95       99.95       99.95       99.95       99.96       99.96       99.96       99.97    
        99.97       99.97       99.98       99.98       99.98       99.99       99.99       99.99       99.99      100.00    
        100.0    
  33    100.0       99.97       99.95       99.92       99.90       99.87       99.84       99.82       99.79       99.76    
        99.73       99.70       99.66       99.63       99.59       99.55       99.51       99.47       99.42       99.38    
        99.33       99.28       99.23       99.20       99.17       99.16       99.16       99.18       99.21       99.25    
        99.29       99.33       99.37       99.40       99.44       99.47       99.50       99.52       99.55       99.57    
        99.59       99.61       99.63       99.65       99.67       99.68       99.70       99.71       99.72       99.74    
        99.75       99.76       99.77       99.78       99.79       99.80       99.81       99.81       99.82       99.83    
        99.84       99.84       99.85       99.86       99.86       99.87       99.88       99.88       99.89       99.89    
        99.90       99.90       99.91       99.91       99.91       99.92       99.92       99.93       99.93       99.93    
        99.94       99.94       99.94       99.95       99.95       99.95       99.96       99.96       99.96       99.97    
        99.97       99.97       99.98       99.98       99.98       99.98       99.99       99.99       99.99      100.00    
        100.0    
  34    100.0       99.97       99.95       99.92       99.90       99.87       99.85       99.82       99.79       99.76    
        99.74       99.71       99.67       99.64       99.61       99.57       99.54       99.50       99.46       99.42    
        99.38       99.34       99.31       99.28       99.26       99.25       99.25       99.26       99.28       99.31    
        99.34       99.37       99.40       99.43       99.46       99.49       99.51       99.54       99.56       99.58    
        99.60       99.62       99.64       99.66       99.67       99.69       99.70       99.71       99.73       99.74    
        99.75       99.76       99.77       99.78       99.79       99.80       99.81       99.81       99.82       99.83    
        99.84       99.84       99.85       99.86       99.86       99.87       99.87       99.88       99.89       99.89    
        99.90       99.90       99.91       99.91       99.91       99.92       99.92       99.93       99.93       99.93    
        99.94       99.94       99.94       99.95       99.95       99.95       99.96       99.96       99.96       99.97    
        99.97       99.97       99.98       99.98       99.98       99.98       99.99       99.99       99.99      100.00    
        100.0    
  35    100.0       99.98       99.95       99.93       99.90       99.88       99.85       99.83       99.80       99.77    
        99.74       99.72       99.69       99.66       99.63       99.59       99.56       99.53       99.49       99.46    
        99.43       99.40       99.37       99.35       99.33       99.33       99.33       99.33       99.35       99.37    
        99.39       99.41       99.44       99.46       99.49       99.51       99.53       99.55       99.57       99.59    
        99.61       99.63       99.65       99.66       99.68       99.69       99.70       99.72       99.73       99.74    
        99.75       99.76       99.77       99.78       99.79       99.80       99.81       99.82       99.82       99.83    
        99.84       99.84       99.85       99.86       99.86       99.87       99.87       99.88       99.89       99.89    
        99.90       99.90       99.90       99.91       99.91       99.92       99.92       99.93       99.93       99.93    
        99.94       99.94       99.94       99.95       99.95       99.95       99.96       99.96       99.96       99.97    
        99.97       99.97       99.98       99.98       99.98       99.98       99.99       99.99       99.99      100.00    
        100.0    
  36    100.0       99.98       99.95       99.93       99.90       99.88       99.86       99.83       99.81       99.78    
        99.75       99.73       99.70       99.67       99.64       99.61       99.59       99.56       99.53       99.50    
        99.47       99.45       99.42       99.41       99.39       99.39       99.38       99.39       99.40       99.41    
        99.43       99.45       99.47       99.49       99.51       99.53       99.55       99.57       99.59       99.61    
        99.62       99.64       99.65       99.67       99.68       99.70       99.71       99.72       99.73       99.74    
        99.75       99.76       99.77       99.78       99.79       99.80       99.81       99.82       99.82       99.83    
        99.84       99.84       99.85       99.86       99.86       99.87       99.87       99.88       99.89       99.89    
        99.90       99.90       99.90       99.91       99.91       99.92       99.92       99.93       99.93       99.93    
        99.94       99.94       99.94       99.95       99.95       99.95       99.96       99.96       99.96       99.97    
        99.97       99.97       99.97       99.98       99.98       99.98       99.99       99.99       99.99      100.00    
        100.0    
  37    100.0       99.98       99.95       99.93       99.91       99.88       99.86       99.84       99.81       99.79    
        99.76       99.74       99.71       99.69       99.66       99.63       99.61       99.58       99.56       99.53    
        99.51       99.49       99.47       99.45       99.44       99.44       99.43       99.44       99.44       99.45    
        99.47       99.48       99.50       99.51       99.53       99.55       99.57       99.58       99.60       99.62    
        99.63       99.65       99.66       99.68       99.69       99.70       99.71       99.72       99.74       99.75    
        99.76       99.77       99.78       99.78       99.79       99.80       99.81       99.82       99.82       99.83    
        99.84       99.85       99.85       99.86       99.86       99.87       99.87       99.88       99.89       99.89    
        99.90       99.90       99.90       99.91       99.91       99.92       99.92       99.93       99.93       99.93    
        99.94       99.94       99.94       99.95       99.95       99.95       99.96       99.96       99.96       99.97    
        99.97       99.97       99.97       99.98       99.98       99.98       99.99       99.99       99.99      100.00    
        100.0    
  38    100.0       99.98       99.96       99.93       99.91       99.89       99.86       99.84       99.82       99.80    
        99.77       99.75       99.72       99.70       99.68       99.65       99.63       99.60       99.58       99.56    
        99.54       99.52       99.51       99.49       99.48       99.48       99.48       99.48       99.48       99.49    
        99.50       99.51       99.52       99.54       99.55       99.57       99.58       99.60       99.61       99.63    
        99.64       99.66       99.67       99.68       99.69       99.71       99.72       99.73       99.74       99.75    
        99.76       99.77       99.78       99.79       99.79       99.80       99.81       99.82       99.83       99.83    
        99.84       99.85       99.85       99.86       99.86       99.87       99.87       99.88       99.89       99.89    
        99.90       99.90       99.90       99.91       99.91       99.92       99.92       99.92       99.93       99.93    
        99.94       99.94       99.94       99.95       99.95       99.95       99.96       99.96       99.96       99.97    
        99.97       99.97       99.97       99.98       99.98       99.98       99.99       99.99       99.99      100.00    
        100.0    
  39    100.0       99.98       99.96       99.94       99.91       99.89       99.87       99.85       99.83       99.80    
        99.78       99.76       99.74       99.71       99.69       99.67       99.65       99.63       99.61       99.59    
        99.57       99.55       99.54       99.53       99.52       99.52       99.51       99.51       99.52       99.52    
        99.53       99.54       99.55       99.56       99.57       99.59       99.60       99.61       99.63       99.64    
        99.65       99.67       99.68       99.69       99.70       99.71       99.72       99.73       99.74       99.75    
        99.76       99.77       99.78       99.79       99.80       99.80       99.81       99.82       99.83       99.83    
        99.84       99.85       99.85       99.86       99.86       99.87       99.88       99.88       99.89       99.89    
        99.90       99.90       99.90       99.91       99.91       99.92       99.92       99.93       99.93       99.93    
        99.94       99.94       99.94       99.95       99.95       99.95       99.96       99.96       99.96       99.97    
        99.97       99.97       99.97       99.98       99.98       99.98       99.99       99.99       99.99      100.00    
        100.0    
  40    100.0       99.98       99.96       99.94       99.92       99.90       99.87       99.85       99.83       99.81    
        99.79       99.77       99.75       99.73       99.71       99.69       99.67       99.65       99.63       99.61    
        99.60       99.58       99.57       99.56       99.55       99.55       99.54       99.54       99.55       99.55    
        99.56       99.56       99.57       99.58       99.59       99.61       99.62       99.63       99.64       99.65    
        99.66       99.68       99.69       99.70       99.71       99.72       99.73       99.74       99.75       99.76    
        99.77       99.78       99.78       99.79       99.80       99.81       99.81       99.82       99.83       99.84    
        99.84       99.85       99.85       99.86       99.87       99.87       99.88       99.88       99.89       99.89    
        99.90       99.90       99.90       99.91       99.91       99.92       99.92       99.93       99.93       99.93    
        99.94       99.94       99.94       99.95       99.95       99.95       99.96       99.96       99.96       99.97    
        99.97       99.97       99.97       99.98       99.98       99.98       99.99       99.99       99.99      100.00    
        100.0    
  41    100.0       99.98       99.96       99.94       99.92       99.90       99.88       99.86       99.84       99.82    
        99.80       99.78       99.76       99.74       99.72       99.70       99.68       99.67       99.65       99.64    
        99.62       99.61       99.60       99.59       99.58       99.58       99.57       99.57       99.57       99.58    
        99.58       99.59       99.59       99.60       99.61       99.62       99.63       99.64       99.65       99.66    
        99.67       99.68       99.70       99.71       99.72       99.73       99.74       99.74       99.75       99.76    
        99.77       99.78       99.79       99.79       99.80       99.81       99.82       99.82       99.83       99.84    
        99.84       99.85       99.86       99.86       99.87       99.87       99.88       99.88       99.89       99.89    
        99.90       99.90       99.91       99.91       99.91       99.92       99.92       99.93       99.93       99.93    
        99.94       99.94       99.94       99.95       99.95       99.95       99.96       99.96       99.96       99.96    
        99.97       99.97       99.97       99.98       99.98       99.98       99.99       99.99       99.99      100.00    
        100.0    
  42    100.0       99.98       99.96       99.94       99.92       99.90       99.88       99.87       99.85       99.83    
        99.81       99.79       99.77       99.75       99.74       99.72       99.70       99.69       99.67       99.66    
        99.64       99.63       99.62       99.61       99.61       99.60       99.60       99.60       99.60       99.60    
        99.60       99.61       99.61       99.62       99.63       99.64       99.65       99.66       99.67       99.68    
        99.68       99.69       99.70       99.71       99.72       99.73       99.74       99.75       99.76       99.77    
        99.77       99.78       99.79       99.80       99.81       99.81       99.82       99.83       99.83       99.84    
        99.84       99.85       99.86       99.86       99.87       99.87       99.88       99.88       99.89       99.89    
        99.90       99.90       99.91       99.91       99.91       99.92       99.92       99.93       99.93       99.93    
        99.94       99.94       99.94       99.95       99.95       99.95       99.96       99.96       99.96       99.96    
        99.97       99.97       99.97       99.98       99.98       99.98       99.99       99.99       99.99      100.00    
        100.0    
  43    100.0       99.98       99.96       99.94       99.93       99.91       99.89       99.87       99.85       99.83    
        99.82       99.80       99.78       99.77       99.75       99.73       99.72       99.70       99.69       99.68    
        99.66       99.65       99.64       99.64       99.63       99.62       99.62       99.62       99.62       99.62    
        99.62       99.63       99.63       99.64       99.65       99.65       99.66       99.67       99.68       99.69    
        99.70       99.70       99.71       99.72       99.73       99.74       99.75       99.76       99.76       99.77    
        99.78       99.79       99.79       99.80       99.81       99.82       99.82       99.83       99.83       99.84    
        99.85       99.85       99.86       99.86       99.87       99.87       99.88       99.88       99.89       99.89    
        99.90       99.90       99.91       99.91       99.91       99.92       99.92       99.93       99.93       99.93    
        99.94       99.94       99.94       99.95       99.95       99.95       99.96       99.96       99.96       99.97    
        99.97       99.97       99.97       99.98       99.98       99.98       99.99       99.99       99.99      100.00    
        100.0    
  44    100.0       99.98       99.96       99.95       99.93       99.91       99.89       99.88       99.86       99.84    
        99.83       99.81       99.79       99.78       99.76       99.75       99.73       99.72       99.71       99.69    
        99.68       99.67       99.66       99.66       99.65       99.65       99.64       99.64       99.64       99.64    
        99.64       99.65       99.65       99.66       99.66       99.67       99.68       99.68       99.69       99.70    
        99.71       99.71       99.72       99.73       99.74       99.75       99.75       99.76       99.77       99.78    
        99.78       99.79       99.80       99.80       99.81       99.82       99.82       99.83       99.84       99.84    
        99.85       99.85       99.86       99.86       99.87       99.88       99.88       99.88       99.89       99.89    
        99.90       99.90       99.91       99.91       99.92       99.92       99.92       99.93       99.93       99.93    
        99.94       99.94       99.94       99.95       99.95       99.95       99.96       99.96       99.96       99.97    
        99.97       99.97       99.97       99.98       99.98       99.98       99.99       99.99       99.99      100.00    
        100.0    
  45    100.0       99.98       99.97       99.95       99.93       99.92       99.90       99.88       99.87       99.85    
        99.83       99.82       99.80       99.79       99.77       99.76       99.75       99.73       99.72       99.71    
        99.70       99.69       99.68       99.68       99.67       99.67       99.66       99.66       99.66       99.66    
        99.66       99.66       99.67       99.67       99.68       99.68       99.69       99.69       99.70       99.71    
        99.72       99.72       99.73       99.74       99.75       99.75       99.76       99.77       99.77       99.78    
        99.79       99.80       99.80       99.81       99.82       99.82       99.83       99.83       99.84       99.85    
        99.85       99.86       99.86       99.87       99.87       99.88       99.88       99.89       99.89       99.90    
        99.90       99.90       99.91       99.91       99.92       99.92       99.92       99.93       99.93       99.93    
        99.94       99.94       99.94       99.95       99.95       99.95       99.96       99.96       99.96       99.97    
        99.97       99.97       99.97       99.98       99.98       99.98       99.99       99.99       99.99      100.00    
        100.0    
  46    100.0       99.98       99.97       99.95       99.94       99.92       99.90       99.89       99.87       99.86    
        99.84       99.83       99.81       99.80       99.78       99.77       99.76       99.75       99.74       99.72    
        99.72       99.71       99.70       99.69       99.69       99.68       99.68       99.68       99.68       99.68    
        99.68       99.68       99.68       99.69       99.69       99.70       99.70       99.71       99.71       99.72    
        99.73       99.73       99.74       99.75       99.75       99.76       99.77       99.77       99.78       99.79    
        99.79       99.80       99.81       99.81       99.82       99.82       99.83       99.84       99.84       99.85    
        99.85       99.86       99.86       99.87       99.87       99.88       99.88       99.89       99.89       99.90    
        99.90       99.91       99.91       99.91       99.92       99.92       99.92       99.93       99.93       99.93    
        99.94       99.94       99.94       99.95       99.95       99.95       99.96       99.96       99.96       99.97    
        99.97       99.97       99.97       99.98       99.98       99.98       99.99       99.99       99.99      100.00    
        100.0    
  47    100.0       99.98       99.97       99.95       99.94       99.92       99.91       99.89       99.88       99.86    
        99.85       99.83       99.82       99.81       99.79       99.78       99.77       99.76       99.75       99.74    
        99.73       99.72       99.72       99.71       99.70       99.70       99.70       99.69       99.69       99.69    
        99.69       99.70       99.70       99.70       99.70       99.71       99.71       99.72       99.72       99.73    
        99.74       99.74       99.75       99.75       99.76       99.77       99.77       99.78       99.79       99.79    
        99.80       99.80       99.81       99.82       99.82       99.83       99.83       99.84       99.84       99.85    
        99.86       99.86       99.87       99.87       99.88       99.88       99.88       99.89       99.89       99.90    
        99.90       99.91       99.91       99.91       99.92       99.92       99.93       99.93       99.93       99.94    
        99.94       99.94       99.94       99.95       99.95       99.95       99.96       99.96       99.96       99.97    
        99.97       99.97       99.98       99.98       99.98       99.98       99.99       99.99       99.99      100.00    
        100.0    
  48    100.0       99.99       99.97       99.96       99.94       99.93       99.91       99.90       99.88       99.87    
        99.86       99.84       99.83       99.82       99.80       99.79       99.78       99.77       99.76       99.75    
        99.74       99.74       99.73       99.72       99.72       99.72       99.71       99.71       99.71       99.71    
        99.71       99.71       99.71       99.71       99.72       99.72       99.72       99.73       99.73       99.74    
        99.74       99.75       99.76       99.76       99.77       99.77       99.78       99.79       99.79       99.80    
        99.80       99.81       99.81       99.82       99.83       99.83       99.84       99.84       99.85       99.85    
        99.86       99.86       99.87       99.87       99.88       99.88       99.89       99.89       99.89       99.90    
        99.90       99.91       99.91       99.92       99.92       99.92       99.93       99.93       99.93       99.94    
        99.94       99.94       99.95       99.95       99.95       99.95       99.96       99.96       99.96       99.97    
        99.97       99.97       99.98       99.98       99.98       99.98       99.99       99.99       99.99      100.00    
        100.0    
  49    100.0       99.99       99.97       99.96       99.94       99.93       99.92       99.90       99.89       99.88    
        99.86       99.85       99.84       99.83       99.81       99.80       99.79       99.78       99.77       99.77    
        99.76       99.75       99.74       99.74       99.73       99.73       99.73       99.72       99.72       99.72    
        99.72       99.72       99.72       99.73       99.73       99.73       99.74       99.74       99.74       99.75    
        99.75       99.76       99.76       99.77       99.77       99.78       99.79       99.79       99.80       99.80    
        99.81       99.81       99.82       99.82       99.83       99.84       99.84       99.85       99.85       99.86    
        99.86       99.87       99.87       99.87       99.88       99.88       99.89       99.89       99.90       99.90    
        99.90       99.91       99.91       99.92       99.92       99.92       99.93       99.93       99.93       99.94    
        99.94       99.94       99.95       99.95       99.95       99.96       99.96       99.96       99.96       99.97    
        99.97       99.97       99.98       99.98       99.98       99.98       99.99       99.99       99.99      100.00    
        100.0    
  50    100.0       99.99       99.97       99.96       99.95       99.93       99.92       99.91       99.89       99.88    
        99.87       99.86       99.85       99.83       99.82       99.81       99.80       99.79       99.79       99.78    
        99.77       99.76       99.76       99.75       99.75       99.74       99.74       99.74       99.74       99.74    
        99.73       99.74       99.74       99.74       99.74       99.74       99.75       99.75       99.75       99.76    
        99.76       99.77       99.77       99.78       99.78       99.79       99.79       99.80       99.80       99.81    
        99.81       99.82       99.82       99.83       99.83       99.84       99.84       99.85       99.85       99.86    
        99.86       99.87       99.87       99.88       99.88       99.89       99.89       99.89       99.90       99.90    
        99.91       99.91       99.91       99.92       99.92       99.92       99.93       99.93       99.93       99.94    
        99.94       99.94       99.95       99.95       99.95       99.96       99.96       99.96       99.96       99.97    
        99.97       99.97       99.98       99.98       99.98       99.99       99.99       99.99       99.99      100.00    
        100.0    
  51    100.0       99.99       99.97       99.96       99.95       99.94       99.92       99.91       99.90       99.89    
        99.88       99.86       99.85       99.84       99.83       99.82       99.81       99.80       99.80       99.79    
        99.78       99.77       99.77       99.76       99.76       99.76       99.75       99.75       99.75       99.75    
        99.75       99.75       99.75       99.75       99.75       99.75       99.76       99.76       99.76       99.77    
        99.77       99.77       99.78       99.78       99.79       99.79       99.80       99.80       99.81       99.81    
        99.82       99.82       99.83       99.83       99.84       99.84       99.85       99.85       99.86       99.86    
        99.87       99.87       99.87       99.88       99.88       99.89       99.89       99.90       99.90       99.90    
        99.91       99.91       99.92       99.92       99.92       99.93       99.93       99.93       99.94       99.94    
        99.94       99.94       99.95       99.95       99.95       99.96       99.96       99.96       99.96       99.97    
        99.97       99.97       99.98       99.98       99.98       99.99       99.99       99.99       99.99      100.00    
        100.0    
  52    100.0       99.99       99.98       99.96       99.95       99.94       99.93       99.92       99.90       99.89    
        99.88       99.87       99.86       99.85       99.84       99.83       99.82       99.81       99.81       99.80    
        99.79       99.79       99.78       99.78       99.77       99.77       99.76       99.76       99.76       99.76    
        99.76       99.76       99.76       99.76       99.76       99.76       99.77       99.77       99.77       99.78    
        99.78       99.78       99.79       99.79       99.80       99.80       99.80       99.81       99.81       99.82    
        99.82       99.83       99.83       99.84       99.84       99.85       99.85       99.86       99.86       99.86    
        99.87       99.87       99.88       99.88       99.89       99.89       99.89       99.90       99.90       99.91    
        99.91       99.91       99.92       99.92       99.92       99.93       99.93       99.93       99.94       99.94    
        99.94       99.95       99.95       99.95       99.95       99.96       99.96       99.96       99.97       99.97    
        99.97       99.97       99.98       99.98       99.98       99.99       99.99       99.99       99.99      100.00    
        100.0    
  53    100.0       99.99       99.98       99.96       99.95       99.94       99.93       99.92       99.91       99.90    
        99.89       99.88       99.87       99.86       99.85       99.84       99.83       99.82       99.82       99.81    
        99.80       99.80       99.79       99.79       99.78       99.78       99.78       99.77       99.77       99.77    
        99.77       99.77       99.77       99.77       99.77       99.77       99.78       99.78       99.78       99.78    
        99.79       99.79       99.79       99.80       99.80       99.81       99.81       99.81       99.82       99.82    
        99.83       99.83       99.84       99.84       99.85       99.85       99.85       99.86       99.86       99.87    
        99.87       99.88       99.88       99.88       99.89       99.89       99.90       99.90       99.90       99.91    
        99.91       99.91       99.92       99.92       99.93       99.93       99.93       99.94       99.94       99.94    
        99.94       99.95       99.95       99.95       99.96       99.96       99.96       99.96       99.97       99.97    
        99.97       99.97       99.98       99.98       99.98       99.99       99.99       99.99       99.99      100.00    
        100.0    
  54    100.0       99.99       99.98       99.97       99.96       99.94       99.93       99.92       99.91       99.90    
        99.89       99.88       99.87       99.86       99.86       99.85       99.84       99.83       99.82       99.82    
        99.81       99.81       99.80       99.80       99.79       99.79       99.79       99.78       99.78       99.78    
        99.78       99.78       99.78       99.78       99.78       99.78       99.78       99.79       99.79       99.79    
        99.79       99.80       99.80       99.80       99.81       99.81       99.82       99.82       99.82       99.83    
        99.83       99.84       99.84       99.85       99.85       99.85       99.86       99.86       99.87       99.87    
        99.87       99.88       99.88       99.89       99.89       99.89       99.90       99.90       99.91       99.91    
        99.91       99.92       99.92       99.92       99.93       99.93       99.93       99.94       99.94       99.94    
        99.95       99.95       99.95       99.95       99.96       99.96       99.96       99.96       99.97       99.97    
        99.97       99.97       99.98       99.98       99.98       99.99       99.99       99.99       99.99      100.00    
        100.0    
  55    100.0       99.99       99.98       99.97       99.96       99.95       99.94       99.93       99.92       99.91    
        99.90       99.89       99.88       99.87       99.86       99.85       99.85       99.84       99.83       99.83    
        99.82       99.82       99.81       99.81       99.80       99.80       99.80       99.79       99.79       99.79    
        99.79       99.79       99.79       99.79       99.79       99.79       99.79       99.79       99.80       99.80    
        99.80       99.81       99.81       99.81       99.82       99.82       99.82       99.83       99.83       99.83    
        99.84       99.84       99.85       99.85       99.85       99.86       99.86       99.87       99.87       99.87    
        99.88       99.88       99.89       99.89       99.89       99.90       99.90       99.90       99.91       99.91    
        99.92       99.92       99.92       99.93       99.93       99.93       99.93       99.94       99.94       99.94    
        99.95       99.95       99.95       99.95       99.96       99.96       99.96       99.96       99.97       99.97    
        99.97       99.98       99.98       99.98       99.98       99.99       99.99       99.99       99.99      100.00    
        100.0    
  56    100.0       99.99       99.98       99.97       99.96       99.95       99.94       99.93       99.92       99.91    
[...]
        99.99       99.99       99.99       99.99       99.99       99.99       99.99       99.99       99.99       99.99    
       100.00      100.00      100.00      100.00      100.00      100.00      100.00      100.00      100.00      100.00    
        100.0    
  88    100.0      100.00      100.00      100.00       99.99       99.99       99.99       99.99       99.99       99.99    
        99.98       99.98       99.98       99.98       99.98       99.98       99.98       99.97       99.97       99.97    
        99.97       99.97       99.97       99.97       99.97       99.97       99.96       99.96       99.96       99.96    
        99.96       99.96       99.96       99.96       99.96       99.96       99.96       99.96       99.96       99.96    
        99.96       99.96       99.96       99.96       99.96       99.96       99.96       99.96       99.96       99.96    
        99.96       99.96       99.96       99.96       99.97       99.97       99.97       99.97       99.97       99.97    
        99.97       99.97       99.97       99.97       99.97       99.98       99.98       99.98       99.98       99.98    
        99.98       99.98       99.98       99.98       99.98       99.98       99.99       99.99       99.99       99.99    
        99.99       99.99       99.99       99.99       99.99       99.99       99.99       99.99       99.99      100.00    
       100.00      100.00      100.00      100.00      100.00      100.00      100.00      100.00      100.00      100.00    
        100.0    
  89    100.0      100.00      100.00      100.00       99.99       99.99       99.99       99.99       99.99       99.99    
        99.99       99.98       99.98       99.98       99.98       99.98       99.98       99.98       99.98       99.97    
        99.97       99.97       99.97       99.97       99.97       99.97       99.97       99.97       99.97       99.97    
        99.96       99.96       99.96       99.96       99.96       99.96       99.96       99.96       99.96       99.96    
        99.96       99.96       99.96       99.96       99.96       99.96       99.96       99.96       99.96       99.96    
        99.96       99.97       99.97       99.97       99.97       99.97       99.97       99.97       99.97       99.97    
        99.97       99.97       99.97       99.98       99.98       99.98       99.98       99.98       99.98       99.98    
        99.98       99.98       99.98       99.98       99.98       99.99       99.99       99.99       99.99       99.99    
        99.99       99.99       99.99       99.99       99.99       99.99       99.99       99.99      100.00      100.00    
       100.00      100.00      100.00      100.00      100.00      100.00      100.00      100.00      100.00      100.00    
        100.0    
  90    100.0      100.00      100.00      100.00       99.99       99.99       99.99       99.99       99.99       99.99    
        99.99       99.99       99.98       99.98       99.98       99.98       99.98       99.98       99.98       99.98    
        99.98       99.97       99.97       99.97       99.97       99.97       99.97       99.97       99.97       99.97    
        99.97       99.97       99.97       99.97       99.97       99.97       99.97       99.96       99.96       99.96    
        99.96       99.96       99.96       99.97       99.97       99.97       99.97       99.97       99.97       99.97    
        99.97       99.97       99.97       99.97       99.97       99.97       99.97       99.97       99.97       99.97    
        99.97       99.98       99.98       99.98       99.98       99.98       99.98       99.98       99.98       99.98    
        99.98       99.98       99.98       99.99       99.99       99.99       99.99       99.99       99.99       99.99    
        99.99       99.99       99.99       99.99       99.99       99.99       99.99      100.00      100.00      100.00    
       100.00      100.00      100.00      100.00      100.00      100.00      100.00      100.00      100.00      100.00    
        100.0    
  91    100.0      100.00      100.00      100.00      100.00       99.99       99.99       99.99       99.99       99.99    
        99.99       99.99       99.99       99.99       99.98       99.98       99.98       99.98       99.98       99.98    
        99.98       99.98       99.98       99.98       99.97       99.97       99.97       99.97       99.97       99.97    
        99.97       99.97       99.97       99.97       99.97       99.97       99.97       99.97       99.97       99.97    
        99.97       99.97       99.97       99.97       99.97       99.97       99.97       99.97       99.97       99.97    
        99.97       99.97       99.97       99.97       99.97       99.97       99.97       99.97       99.98       99.98    
        99.98       99.98       99.98       99.98       99.98       99.98       99.98       99.98       99.98       99.98    
        99.98       99.99       99.99       99.99       99.99       99.99       99.99       99.99       99.99       99.99    
        99.99       99.99       99.99       99.99       99.99       99.99      100.00      100.00      100.00      100.00    
       100.00      100.00      100.00      100.00      100.00      100.00      100.00      100.00      100.00      100.00    
        100.0    
  92    100.0      100.00      100.00      100.00      100.00       99.99       99.99       99.99       99.99       99.99    
        99.99       99.99       99.99       99.99       99.99       99.98       99.98       99.98       99.98       99.98    
        99.98       99.98       99.98       99.98       99.98       99.98       99.98       99.98       99.97       99.97    
        99.97       99.97       99.97       99.97       99.97       99.97       99.97       99.97       99.97       99.97    
        99.97       99.97       99.97       99.97       99.97       99.97       99.97       99.97       99.97       99.97    
        99.97       99.97       99.97       99.98       99.98       99.98       99.98       99.98       99.98       99.98    
        99.98       99.98       99.98       99.98       99.98       99.98       99.98       99.98       99.98       99.99    
        99.99       99.99       99.99       99.99       99.99       99.99       99.99       99.99       99.99       99.99    
        99.99       99.99       99.99       99.99      100.00      100.00      100.00      100.00      100.00      100.00    
       100.00      100.00      100.00      100.00      100.00      100.00      100.00      100.00      100.00      100.00    
        100.0    
  93    100.0      100.00      100.00      100.00      100.00      100.00       99.99       99.99       99.99       99.99    
        99.99       99.99       99.99       99.99       99.99       99.99       99.99       99.99       99.98       99.98    
        99.98       99.98       99.98       99.98       99.98       99.98       99.98       99.98       99.98       99.98    
        99.98       99.98       99.98       99.98       99.98       99.98       99.97       99.97       99.97       99.97    
        99.97       99.97       99.97       99.97       99.97       99.98       99.98       99.98       99.98       99.98    
        99.98       99.98       99.98       99.98       99.98       99.98       99.98       99.98       99.98       99.98    
        99.98       99.98       99.98       99.98       99.98       99.98       99.98       99.99       99.99       99.99    
        99.99       99.99       99.99       99.99       99.99       99.99       99.99       99.99       99.99       99.99    
        99.99       99.99       99.99      100.00      100.00      100.00      100.00      100.00      100.00      100.00    
       100.00      100.00      100.00      100.00      100.00      100.00      100.00      100.00      100.00      100.00    
        100.0    
  94    100.0      100.00      100.00      100.00      100.00      100.00      100.00       99.99       99.99       99.99    
        99.99       99.99       99.99       99.99       99.99       99.99       99.99       99.99       99.99       99.99    
        99.99       99.98       99.98       99.98       99.98       99.98       99.98       99.98       99.98       99.98    
        99.98       99.98       99.98       99.98       99.98       99.98       99.98       99.98       99.98       99.98    
        99.98       99.98       99.98       99.98       99.98       99.98       99.98       99.98       99.98       99.98    
        99.98       99.98       99.98       99.98       99.98       99.98       99.98       99.98       99.98       99.98    
        99.98       99.98       99.98       99.99       99.99       99.99       99.99       99.99       99.99       99.99    
        99.99       99.99       99.99       99.99       99.99       99.99       99.99       99.99       99.99       99.99    
        99.99       99.99      100.00      100.00      100.00      100.00      100.00      100.00      100.00      100.00    
       100.00      100.00      100.00      100.00      100.00      100.00      100.00      100.00      100.00      100.00    
        100.0    
  95    100.0      100.00      100.00      100.00      100.00      100.00      100.00      100.00       99.99       99.99    
        99.99       99.99       99.99       99.99       99.99       99.99       99.99       99.99       99.99       99.99    
        99.99       99.99       99.99       99.99       99.99       99.99       99.98       99.98       99.98       99.98    
        99.98       99.98       99.98       99.98       99.98       99.98       99.98       99.98       99.98       99.98    
        99.98       99.98       99.98       99.98       99.98       99.98       99.98       99.98       99.98       99.98    
        99.98       99.98       99.98       99.98       99.98       99.98       99.98       99.98       99.99       99.99    
        99.99       99.99       99.99       99.99       99.99       99.99       99.99       99.99       99.99       99.99    
        99.99       99.99       99.99       99.99       99.99       99.99       99.99       99.99       99.99       99.99    
       100.00      100.00      100.00      100.00      100.00      100.00      100.00      100.00      100.00      100.00    
       100.00      100.00      100.00      100.00      100.00      100.00      100.00      100.00      100.00      100.00    
        100.0    
  96    100.0      100.00      100.00      100.00      100.00      100.00      100.00      100.00      100.00      100.00    
        99.99       99.99       99.99       99.99       99.99       99.99       99.99       99.99       99.99       99.99    
        99.99       99.99       99.99       99.99       99.99       99.99       99.99       99.99       99.99       99.99    
        99.99       99.99       99.99       99.98       99.98       99.98       99.98       99.98       99.98       99.98    
        99.98       99.98       99.98       99.98       99.98       99.98       99.98       99.98       99.99       99.99    
        99.99       99.99       99.99       99.99       99.99       99.99       99.99       99.99       99.99       99.99    
        99.99       99.99       99.99       99.99       99.99       99.99       99.99       99.99       99.99       99.99    
        99.99       99.99       99.99       99.99       99.99       99.99       99.99       99.99      100.00      100.00    
       100.00      100.00      100.00      100.00      100.00      100.00      100.00      100.00      100.00      100.00    
       100.00      100.00      100.00      100.00      100.00      100.00      100.00      100.00      100.00      100.00    
        100.0    
  97    100.0      100.00      100.00      100.00      100.00      100.00      100.00      100.00      100.00      100.00    
       100.00      100.00      100.00       99.99       99.99       99.99       99.99       99.99       99.99       99.99    
        99.99       99.99       99.99       99.99       99.99       99.99       99.99       99.99       99.99       99.99    
        99.99       99.99       99.99       99.99       99.99       99.99       99.99       99.99       99.99       99.99    
        99.99       99.99       99.99       99.99       99.99       99.99       99.99       99.99       99.99       99.99    
        99.99       99.99       99.99       99.99       99.99       99.99       99.99       99.99       99.99       99.99    
        99.99       99.99       99.99       99.99       99.99       99.99       99.99       99.99       99.99       99.99    
        99.99       99.99       99.99       99.99       99.99      100.00      100.00      100.00      100.00      100.00    
       100.00      100.00      100.00      100.00      100.00      100.00      100.00      100.00      100.00      100.00    
       100.00      100.00      100.00      100.00      100.00      100.00      100.00      100.00      100.00      100.00    
        100.0    
  98    100.0      100.00      100.00      100.00      100.00      100.00      100.00      100.00      100.00      100.00    
       100.00      100.00      100.00      100.00      100.00      100.00      100.00       99.99       99.99       99.99    
        99.99       99.99       99.99       99.99       99.99       99.99       99.99       99.99       99.99       99.99    
        99.99       99.99       99.99       99.99       99.99       99.99       99.99       99.99       99.99       99.99    
        99.99       99.99       99.99       99.99       99.99       99.99       99.99       99.99       99.99       99.99    
        99.99       99.99       99.99       99.99       99.99       99.99       99.99       99.99       99.99       99.99    
        99.99       99.99       99.99       99.99       99.99       99.99       99.99       99.99       99.99       99.99    
       100.00      100.00      100.00      100.00      100.00      100.00      100.00      100.00      100.00      100.00    
       100.00      100.00      100.00      100.00      100.00      100.00      100.00      100.00      100.00      100.00    
       100.00      100.00      100.00      100.00      100.00      100.00      100.00      100.00      100.00       100.0    
        100.0    
  99    100.0      100.00      100.00      100.00      100.00      100.00      100.00      100.00      100.00      100.00    
       100.00      100.00      100.00      100.00      100.00      100.00      100.00      100.00      100.00      100.00    
       100.00      100.00      100.00      100.00      100.00      100.00       99.99       99.99       99.99       99.99    
        99.99       99.99       99.99       99.99       99.99       99.99       99.99       99.99       99.99       99.99    
        99.99       99.99       99.99       99.99       99.99       99.99       99.99       99.99       99.99       99.99    
        99.99       99.99       99.99       99.99       99.99       99.99       99.99       99.99      100.00      100.00    
       100.00      100.00      100.00      100.00      100.00      100.00      100.00      100.00      100.00      100.00    
       100.00      100.00      100.00      100.00      100.00      100.00      100.00      100.00      100.00      100.00    
       100.00      100.00      100.00      100.00      100.00      100.00      100.00      100.00      100.00      100.00    
       100.00      100.00      100.00      100.00      100.00      100.00      100.00      100.00      100.00       100.0    
        100.0    
 100    100.0      100.00      100.00      100.00      100.00      100.00      100.00      100.00      100.00      100.00    
       100.00      100.00      100.00      100.00      100.00      100.00      100.00      100.00      100.00      100.00    
       100.00      100.00      100.00      100.00      100.00      100.00      100.00      100.00      100.00      100.00    
       100.00      100.00      100.00      100.00      100.00      100.00      100.00      100.00      100.00      100.00    
       100.00      100.00      100.00      100.00      100.00      100.00      100.00      100.00      100.00      100.00    
       100.00      100.00      100.00      100.00      100.00      100.00      100.00      100.00      100.00      100.00    
       100.00      100.00      100.00      100.00      100.00      100.00      100.00      100.00      100.00      100.00    
       100.00      100.00      100.00      100.00      100.00      100.00      100.00      100.00      100.00      100.00    
       100.00      100.00      100.00      100.00      100.00      100.00      100.00      100.00      100.00      100.00    
       100.00      100.00      100.00      100.00      100.00      100.00      100.00       100.0       100.0       100.0    
        100.0    
 101    100.0       100.0       100.0       100.0       100.0       100.0       100.0       100.0       100.0       100.0    
        100.0       100.0       100.0       100.0       100.0       100.0       100.0       100.0       100.0       100.0    
        100.0       100.0       100.0       100.0       100.0       100.0       100.0       100.0       100.0       100.0    
        100.0       100.0       100.0       100.0       100.0       100.0       100.0       100.0       100.0       100.0    
        100.0       100.0       100.0       100.0       100.0       100.0       100.0       100.0       100.0       100.0    
        100.0       100.0       100.0       100.0       100.0       100.0       100.0       100.0       100.0       100.0    
        100.0       100.0       100.0       100.0       100.0       100.0       100.0       100.0       100.0       100.0    
        100.0       100.0       100.0       100.0       100.0       100.0       100.0       100.0       100.0       100.0    
        100.0       100.0       100.0       100.0       100.0       100.0       100.0       100.0       100.0       100.0    
        100.0       100.0       100.0       100.0       100.0       100.0       100.0       100.0       100.0       100.0    
        100.0    

 HEAD WILL BE SAVED ON UNIT 1013 AT END OF TIME STEP    1, STRESS PERIOD    1


  VOLUME BUDGET FOR ENTIRE MODEL AT END OF TIME STEP    1, STRESS PERIOD   1
  ---------------------------------------------------------------------------------------------------

     CUMULATIVE VOLUME      L**3       RATES FOR THIS TIME STEP      L**3/T          PACKAGE NAME    
     ------------------                 ------------------------                     ----------------

           IN:                                      IN:
           ---                                      ---
                 CHD =         131.3007                   CHD =         131.3007     CHD                              

            TOTAL IN =         131.3007              TOTAL IN =         131.3007

          OUT:                                     OUT:
          ----                                     ----
                 CHD =         131.3360                   CHD =         131.3360     CHD                              

           TOTAL OUT =         131.3360             TOTAL OUT =         131.3360

            IN - OUT =      -3.5280E-02              IN - OUT =      -3.5280E-02

 PERCENT DISCREPANCY =          -0.03     PERCENT DISCREPANCY =          -0.03




         TIME SUMMARY AT END OF TIME STEP    1 IN STRESS PERIOD    1
                    SECONDS     MINUTES      HOURS       DAYS        YEARS
                    -----------------------------------------------------------
   TIME STEP LENGTH  86400.      1440.0      24.000      1.0000     2.73785E-03
 STRESS PERIOD TIME  86400.      1440.0      24.000      1.0000     2.73785E-03
         TOTAL TIME  86400.      1440.0      24.000      1.0000     2.73785E-03


end timestep

